INSTALL_FILES = ../config/CDB/schemas/datatypes.dtd ../config/CDB/schemas/XMLSchema.dtd 

CDB_SCHEMAS = xml XMLSchema

$(MODRULE)all: $(MODPATH) $(MODDEP)
	$(AT)echo " . . . $@ done"

$(MODRULE)install: $(MODPATH) install_$(MODDEP)
	$(AT)echo " . . . $@ done"

$(MODRULE)clean: $(MODPATH) clean_$(MODDEP)
	$(AT)echo " . . . $@ done"

$(MODRULE)clean_dist: $(MODPATH) clean_dist_$(MODDEP)
	$(AT)echo " . . . $@ done"
