# -*- tcl -*-
source acsRestoreEnv.tcl

catch {unset ::env(INTROOT)}
catch {unset ::env(INTLIST)}
catch {unset ::env(ACSROOT)}
catch {unset ::env(MODPATH)}
catch {unset ::env(ALMASW_INSTDIR)}
catch {unset ::env(ACSDEPS)}
