# -*- tcl -*-
source acsRestoreEnv.tcl

set ::env(INTROOT) /introot/myIntroot
set ::env(INTLIST) /introot/herIntroot:/introot/hisIntroot
set ::env(ACSROOT) /alma/ACS15/ACSSW
set ::env(MODPATH) 1
set ::env(ALMASW_INSTDIR) /alma/ACS15
set ::env(ACSDEPS) /alma/ACS15/acsdeps
